



#if 0




\\
\\
\\  This is the mechanism file
\\
\\
!
! ************************************************************************
! ************************************************************************
! ******************* Master mechanism C/H/O/N       ********************
! ************************************************************************
! ************************************************************************
!
! SKR/GLA04:  Ø. Skreiberg, P. Kilpinen and P. Glarborg; “Ammonia Chemistry 
!             under Fuel-Rich Conditions in a Flow Reactor”, Combust. Flame
!             136, 501-508 (2004)
!
! RAS/GLA08 : C.L. Rasmussen, J. Hansen, P. Marshall, and P. Glarborg; 
!             “Experimental Measurements and Kinetic Modeling of CO/H2/O2/NOx 
!             Conversion at High Pressure”, Int. J. Chem. Kin. 40, 454-480 (2008)
!
 ELEMENTS
 O  H  N 
 END  
!
 SPECIES    
H  O  OH  H2  O2  HO2  H2O  H2O2            
!
NO NO2 N2O  
!
NH N NNH N2
 END
!
 THERMO ALL
   300.00   1000.00   5000.00  
H                 L 6/94H   1    0    0    0G   200.00   6000.00  1000.        1
 0.25000000E+01 0.00000000E+00 0.00000000E+00 0.00000000E+00 0.00000000E+00    2
 0.25473660E+05-0.44668285E+00 0.25000000E+01 0.00000000E+00 0.00000000E+00    3
 0.00000000E+00 0.00000000E+00 0.25473660E+05-0.44668285E+00 0.26219035E+05    4
HO2               L 5/89H   1O   2    0    0G   200.00   6000.00  1000.        1
 4.17226590E+00 1.88120980E-03-3.46292970E-07 1.94685160E-11 1.76091530E-16    2
 3.02010736E+01 2.95697380E+00 4.30178800E+00-4.74902010E-03 2.11579530E-05    3
-2.42759610E-08 9.29206700E-12 2.63190983E+02 3.71587740E+00                   4
H2  REF ELEMENT   RUS 78H   2    0    0    0G   200.00   6000.00  1000.        1
 0.29328305E+01 0.82659802E-03-0.14640057E-06 0.15409851E-10-0.68879615E-15    2
-0.81305582E+03-0.10243164E+01 0.23443029E+01 0.79804248E-02-0.19477917E-04    3
 0.20156967E-07-0.73760289E-11-0.91792413E+03 0.68300218E+00 0.00000000E+00    4
H2O               L 5/89H   2O   1    0    0G   200.00   6000.00  1000.        1
 0.26770389E+01 0.29731816E-02-0.77376889E-06 0.94433514E-10-0.42689991E-14    2
-0.29885894E+05 0.68825500E+01 0.41986352E+01-0.20364017E-02 0.65203416E-05    3
-0.54879269E-08 0.17719680E-11-0.30293726E+05-0.84900901E+00-0.29084817E+05    4
H2O2              T 8/03H   2O   2    0    0G   200.00   6000.00  1000.        1
 4.57977305E+00 4.05326003E-03-1.29844730E-06 1.98211400E-10-1.13968792E-14    2
-1.79847939E+04 6.64969660E-01 4.31515149E+00-8.47390622E-04 1.76404323E-05    3
-2.26762944E-08 9.08950158E-12-1.76843601E+04 3.27373216E+00                   4
N                 120186N   1               G  0300.00   5000.00  1000.00      1
 0.02450268E+02 0.01066146E-02-0.07465337E-06 0.01879652E-09-0.01025984E-13    2
 0.05611604E+06 0.04448758E+02 0.02503071E+02-0.02180018E-03 0.05420529E-06    3
-0.05647560E-09 0.02099904E-12 0.05609890E+06 0.04167566E+02                   4
NH                      N   1H   1    0    0G   200.00   6000.00  1000.0       1
 0.27836929E+01 0.13298429E-02-0.42478047E-06 0.78348504E-10-0.55044470E-14    2
 0.42134514E+05 0.57407798E+01 0.34929084E+01 0.31179197E-03-0.14890484E-05    3
 0.24816442E-08-0.10356967E-11 0.41894294E+05 0.18483277E+01 0.42940822E+05    4
NNH               120186N   2H   1          G  0250.000  4000.00  1000.00      1
 0.04415342E+02 0.01614388E-01-0.01632894E-05-0.08559846E-09 0.01614791E-12    2
 0.02788029E+06 0.09042888E+01 0.03501344E+02 0.02053587E-01 0.07170410E-05    3
 0.04921348E-08-0.09671170E-11 0.02833347E+06 0.06391837E+02                   4
NO                RUS 89N   1O   1    0    0G   200.00   6000.00  1000.        1
 3.26071234E+00 1.19101135E-03-4.29122646E-07 6.94481463E-11-4.03295681E-15    2
 9.89456954E+03 6.36900469E+00 4.21859896E+00-4.63988124E-03 1.10443049E-05    3
-9.34055507E-09 2.80554874E-12 9.81823786E+03 2.28060952E+00                   4
NO2               L 7/88N   1O   2    0    0G   200.00   6000.00  1000.        1
 4.88475400E+00 2.17239550E-03-8.28069090E-07 1.57475100E-10-1.05108950E-14    2
 2.29397777E+03-1.17416951E-01 3.94403120E+00-1.58542900E-03 1.66578120E-05    3
-2.04754260E-08 7.83505640E-12 2.87409757E+03 6.31199190E+00                   4
N2        BUR0302 G 8/02N  2.   0.   0.   0.G   200.00   6000.00  1000.        1
 2.95257637E+00 1.39690040E-03-4.92631603E-07 7.86010195E-11-4.60755204E-15    2
-9.23948688E+02 5.87188762E+00 3.53100528E+00-1.23660988E-04-5.02999433E-07    3
 2.43530612E-09-1.40881235E-12-1.04697628E+03 2.96747038E+00 0.00000000E+00    4
N2O               121286N   2O   1          G  0300.00   5000.00  1000.00      1
 0.04718977E+02 0.02873714E-01-0.01197496E-04 0.02250552E-08-0.01575337E-12    2
 0.08165811E+05-0.01657250E+02 0.02543058E+02 0.09492193E-01-0.09792775E-04    3
 0.06263845E-07-0.01901826E-10 0.08765100E+05 0.09511222E+02                   4
O                 L 1/90O   1    0    0    0G   200.00   6000.00  1000.        1
 2.54363697E+00-2.73162486E-05-4.19029520E-09 4.95481845E-12-4.79553694E-16    2
 2.92260120E+04 4.92229457E+00 3.16826710E+00-3.27931884E-03 6.64306396E-06    3
-6.12806624E-09 2.11265971E-12 2.91222592E+04 2.05193346E+00 2.99687009E+04    4
O2 REF ELEMENT    RUS 89O   2    0    0    0G   200.00   6000.00  1000.        1
 3.66096083E+00 6.56365523E-04-1.41149485E-07 2.05797658E-11-1.29913248E-15    2
-1.21597725E+03 3.41536184E+00 3.78245636E+00-2.99673415E-03 9.84730200E-06    3
-9.68129508E-09 3.24372836E-12-1.06394356E+03 3.65767573E+00 0.00000000E+00    4
OH HYDROXYL RADI  IU3/03O   1H   1    0    0G   200.00   6000.00  1000.        1
 2.83853033E+00 1.10741289E-03-2.94000209E-07 4.20698729E-11-2.42289890E-15    2
 3.70056220E+03 5.84513094E+00 3.99198424E+00-2.40106655E-03 4.61664033E-06    3
-3.87916306E-09 1.36319502E-12 3.37165248E+03-1.03814059E-01                   4
!
 END
!
 REACTIONS
!
! *****************************************************************************
!    H2/O2 subset                                                             *
! *****************************************************************************
!
   H+O2=O+OH                            3.6E15  -0.410   16600 ! RAS/GLA08  HES98
   H+H+M=H2+M                           7.0E17  -1.000       0 ! RAS/GLA08  COH/WES83
     N2/0/ H2O/0/ H2/0/                                        !
   H+H+N2=H2+N2                         5.4E18  -1.300       0 ! RAS/GLA08  COH/WES83
   H+H+H2=H2+H2                         1.0E17  -0.600       0 ! RAS/GLA08  COH/WES83
   H+H+H2O=H2+H2O                       1.0E19  -1.000       0 ! RAS/GLA08  COH/WES83
   H+O+M=OH+M                           6.2E16  -0.600       0 ! RAS/GLA08  MIL/BOW89
     H2O/5/                                                    ! 
   H+O2(+M)=HO2(+M)                     1.5E12   0.600       0 ! RAS/GLA08  MUE/DRY98
     LOW  / 3.5E16 -0.41 -1116 /                               !
     TROE / 0.5 1.0E-30 1.0E30 /                               !
     N2/0/ H2O/11/ H2/2/ O2/0.78/                        !
   H+O2(+N2)=HO2(+N2)                   1.5E12   0.600       0 ! RAS/GLA08  LI/DRY04
     LOW  / 6.37E20 -1.720 520 /                               !
     TROE / 0.8 1.0E-30 1.0E30 /                               !
   O+O+M=O2+M                           1.9E13   0.000   -1788 ! RAS/GLA08  NBS86
     N2/1.5/ O2/1.5/ H2O/10/                                   !
   O+H2=OH+H                            3.8E12   0.000    7948 ! RAS/GLA08  CEC05
     DUPLICATE                                                 !
   O+H2=OH+H                            8.8E14   0.000   19175 ! RAS/GLA08  CEC05
     DUPLICATE                                                 !
   OH+OH=O+H2O                          4.3E03   2.700   -1822 ! RAS/GLA08  SRI/MIC06
   OH+H+M=H2O+M                         4.5E22  -2.000       0 ! RAS/GLA08  CON/WES04
     H2/0.73/ H2O/12/ !HE/0.38/                       !   
   OH+H2=H+H2O                          2.1E08   1.520    3449 ! RAS/GLA08  MIC92
   H2+O2=HO2+H                          7.4E05   2.433   53502 ! RAS/GLA08  MIC/WAG00 
   HO2+H=OH+OH                          8.4E13   0.000     400 ! RAS/GLA08  RAS/GLA08 
   HO2+H=H2O+O                          1.4E12   0.000       0 ! RAS/GLA08  CEC05
   HO2+O=OH+O2                          1.6E13   0.000    -445 ! RAS/GLA08  CEC05
   HO2+OH=H2O+O2                        3.6E21  -2.100    9000 ! RAS/GLA08  RAS/GLA08 
     DUPLICATE                                                 !
   HO2+OH=H2O+O2                        2.0E15  -0.600       0 ! 
     DUPLICATE                                                 !
   HO2+OH=H2O+O2                       -2.2E96 -24.000   49000 !
     DUPLICATE                                                 !
   HO2+HO2=H2O2+O2                      1.9E11   0.000   -1408 ! RAS/GLA08  KAP/TROE02
     DUPLICATE                                                 !
   HO2+HO2=H2O2+O2                      1.0E14   0.000   11034 !
     DUPLICATE                                                 !
   H2O2(+M)=OH+OH(+M)                   4.0E11   0.000   37137 ! RAS/GLA08  KAP/TRO02
     LOW  /2.291E16 0.0 43638/                                 !
     TROE /0.5 1E-30 1E30 1E30/                                !  (Fc=0.5)
     H2O/12/ H2/2.5/                                   !
   H2O2+H=H2O+OH                        1.0E13   0.000    3580 ! RAS/GLA08  CEC05
   H2O2+H=HO2+H2                        1.7E12   0.000    3760 ! RAS/GLA08  CEC05
   H2O2+O=HO2+OH                        9.6E06   2.000    3970 ! RAS/GLA08  NBS86
   H2O2+OH=H2O+HO2                      1.9E12   0.000     427 ! RAS/GLA08  HIP/TRO95
     DUPLICATE                                                 !
   H2O2+OH=H2O+HO2                      1.6E18   0.000   29410 ! RAS/GLA08  HIP/TRO95
     DUPLICATE                                                 !
!
! ************************************************************************
!    N subset (oxid.)                                                    *
! ************************************************************************
!
   NO+O(+M)=NO2(+M)                     1.3E15  -0.750       0 ! RAS/GLA08 ALL/DRY97,NBS91
     LOW  /4.72E24 -2.87 1550/                                 ! RAS/GLA08 ALL/DRY97 (Fc=0.95-1E-04*T)
     TROE /0.880 1E03 1E04 1E30/                               ! RAS/GLA08  (  1bar) ¤
   NO+HO2=NO2+OH                        2.1E12   0.000    -497 ! RAS/GLA08 CEC05
!
   NO2+H=NO+OH                          1.3E14   0.000     362 ! RAS/GLA08 KO/FON91
   NO2+O=NO+O2                          1.1E14  -0.520       0 ! RAS/GLA08 BEM/CLY74
   NO2+NO2=NO+NO+O2                     4.5E12   0.000   27599 ! RAS/GLA08 PAR/LIN98
!
   N2O(+M)=N2+O(+M)                     1.3E12   0.000   62570 ! SKR/GLA04 JOH/GLA92,ROH/HAN96
     LOW/4.0E14 0 56600/
     N2/1.7/ O2/1.4/ H2O/12/   !
   N2O+H=N2+OH                          3.3E10   0.000    4729 ! SKR/GLA04 MAR/FON87
     DUP
   N2O+H=N2+OH                          4.4E14   0.000   19254 !
     DUP
   N2O+O=NO+NO                          9.2E13   0.000   27679 ! SKR/GLA04 MEA/AND00
   N2O+O=N2+O2                          3.7E12   0.000   15936 ! SKR/GLA04 MEA/AND00
!
   NH+H=N+H2                            3.0E13   0.000       0 ! SKR/GLA04 DAV/HAN90,rv
   NH+O=NO+H                            9.2E13   0.000       0 ! SKR/GLA04 CEC94
   NH+OH=N+H2O                          5.0E11   0.500    2000 ! SKR/GLA04 JAM est
   NH+O2=NO+OH                          1.3E06   1.500     100 ! SKR/GLA04 MIL/MEL92
   NH+NO=N2O+H                          2.9E14  -0.400       0 ! SKR/GLA04 MIL/MEL92
     DUP
   NH+NO=N2O+H                         -2.2E13  -0.230       0 !
     DUP
   NH+NO=N2+OH                          2.2E13  -0.230       0 ! SKR/GLA04 MIL/MEL92
   NH+NO2=N2O+OH                        1.0E13   0.000       0 ! SKR/GLA04 HAR/PHI86
   N+OH=NO+H                            3.8E13   0.000       0 ! SKR/GLA04 FLO/HAN77,HOW/SMI80
   N+O2=NO+O                            6.4E09   1.000    6280 ! SKR/GLA04 BAU/DRY73
   N+NO=N2+O                            2.1E13   0.000       0 !           CEC05
!   
   NNH=N2+H                             6.5E07   0.000       0 ! SKR/GLA04 MIL/GLA99
   NNH+H=N2+H2                          1.0E14   0.000       0 ! SKR/GLA04 JAM est
   NNH+O=N2O+H                          1.0E14   0.000       0 ! SKR/GLA04 JAM est
   NNH+O=N2+OH                          8.0E13   0.000       0 ! SKR/GLA04 JAM est
   NNH+O=NH+NO                          5.0E13   0.000       0 ! SKR/GLA04 MIL/MEL92
   NNH+OH=N2+H2O                        5.0E13   0.000       0 ! SKR/GLA04 JAM est
   NNH+O2=N2+HO2                        2.0E14   0.000       0 ! SKR/GLA04 MIL/GLA99
   NNH+O2=N2+H+O2                       5.0E13   0.000       0 ! SKR/GLA04 MIL/GLA99
!
 END


\\
\\
\\  This is the therm file
\\
\\
 THERMO 
   300.00   1000.00   5000.00  
H                 L 6/94H   1    0    0    0G   200.00   6000.00  1000.        1
 0.25000000E+01 0.00000000E+00 0.00000000E+00 0.00000000E+00 0.00000000E+00    2
 0.25473660E+05-0.44668285E+00 0.25000000E+01 0.00000000E+00 0.00000000E+00    3
 0.00000000E+00 0.00000000E+00 0.25473660E+05-0.44668285E+00 0.26219035E+05    4
HO2               L 5/89H   1O   2    0    0G   200.00   6000.00  1000.        1
 4.17226590E+00 1.88120980E-03-3.46292970E-07 1.94685160E-11 1.76091530E-16    2
 3.02010736E+01 2.95697380E+00 4.30178800E+00-4.74902010E-03 2.11579530E-05    3
-2.42759610E-08 9.29206700E-12 2.63190983E+02 3.71587740E+00                   4
H2  REF ELEMENT   RUS 78H   2    0    0    0G   200.00   6000.00  1000.        1
 0.29328305E+01 0.82659802E-03-0.14640057E-06 0.15409851E-10-0.68879615E-15    2
-0.81305582E+03-0.10243164E+01 0.23443029E+01 0.79804248E-02-0.19477917E-04    3
 0.20156967E-07-0.73760289E-11-0.91792413E+03 0.68300218E+00 0.00000000E+00    4
H2O               L 5/89H   2O   1    0    0G   200.00   6000.00  1000.        1
 0.26770389E+01 0.29731816E-02-0.77376889E-06 0.94433514E-10-0.42689991E-14    2
-0.29885894E+05 0.68825500E+01 0.41986352E+01-0.20364017E-02 0.65203416E-05    3
-0.54879269E-08 0.17719680E-11-0.30293726E+05-0.84900901E+00-0.29084817E+05    4
H2O2              T 8/03H   2O   2    0    0G   200.00   6000.00  1000.        1
 4.57977305E+00 4.05326003E-03-1.29844730E-06 1.98211400E-10-1.13968792E-14    2
-1.79847939E+04 6.64969660E-01 4.31515149E+00-8.47390622E-04 1.76404323E-05    3
-2.26762944E-08 9.08950158E-12-1.76843601E+04 3.27373216E+00                   4
N                 120186N   1               G  0300.00   5000.00  1000.00      1
 0.02450268E+02 0.01066146E-02-0.07465337E-06 0.01879652E-09-0.01025984E-13    2
 0.05611604E+06 0.04448758E+02 0.02503071E+02-0.02180018E-03 0.05420529E-06    3
-0.05647560E-09 0.02099904E-12 0.05609890E+06 0.04167566E+02                   4
NH                      N   1H   1    0    0G   200.00   6000.00  1000.0       1
 0.27836929E+01 0.13298429E-02-0.42478047E-06 0.78348504E-10-0.55044470E-14    2
 0.42134514E+05 0.57407798E+01 0.34929084E+01 0.31179197E-03-0.14890484E-05    3
 0.24816442E-08-0.10356967E-11 0.41894294E+05 0.18483277E+01 0.42940822E+05    4
NNH               120186N   2H   1          G  0250.000  4000.00  1000.00      1
 0.04415342E+02 0.01614388E-01-0.01632894E-05-0.08559846E-09 0.01614791E-12    2
 0.02788029E+06 0.09042888E+01 0.03501344E+02 0.02053587E-01 0.07170410E-05    3
 0.04921348E-08-0.09671170E-11 0.02833347E+06 0.06391837E+02                   4
NO                RUS 89N   1O   1    0    0G   200.00   6000.00  1000.        1
 3.26071234E+00 1.19101135E-03-4.29122646E-07 6.94481463E-11-4.03295681E-15    2
 9.89456954E+03 6.36900469E+00 4.21859896E+00-4.63988124E-03 1.10443049E-05    3
-9.34055507E-09 2.80554874E-12 9.81823786E+03 2.28060952E+00                   4
NO2               L 7/88N   1O   2    0    0G   200.00   6000.00  1000.        1
 4.88475400E+00 2.17239550E-03-8.28069090E-07 1.57475100E-10-1.05108950E-14    2
 2.29397777E+03-1.17416951E-01 3.94403120E+00-1.58542900E-03 1.66578120E-05    3
-2.04754260E-08 7.83505640E-12 2.87409757E+03 6.31199190E+00                   4
N2        BUR0302 G 8/02N  2.   0.   0.   0.G   200.00   6000.00  1000.        1
 2.95257637E+00 1.39690040E-03-4.92631603E-07 7.86010195E-11-4.60755204E-15    2
-9.23948688E+02 5.87188762E+00 3.53100528E+00-1.23660988E-04-5.02999433E-07    3
 2.43530612E-09-1.40881235E-12-1.04697628E+03 2.96747038E+00 0.00000000E+00    4
N2O               121286N   2O   1          G  0300.00   5000.00  1000.00      1
 0.04718977E+02 0.02873714E-01-0.01197496E-04 0.02250552E-08-0.01575337E-12    2
 0.08165811E+05-0.01657250E+02 0.02543058E+02 0.09492193E-01-0.09792775E-04    3
 0.06263845E-07-0.01901826E-10 0.08765100E+05 0.09511222E+02                   4
O                 L 1/90O   1    0    0    0G   200.00   6000.00  1000.        1
 2.54363697E+00-2.73162486E-05-4.19029520E-09 4.95481845E-12-4.79553694E-16    2
 2.92260120E+04 4.92229457E+00 3.16826710E+00-3.27931884E-03 6.64306396E-06    3
-6.12806624E-09 2.11265971E-12 2.91222592E+04 2.05193346E+00 2.99687009E+04    4
O2 REF ELEMENT    RUS 89O   2    0    0    0G   200.00   6000.00  1000.        1
 3.66096083E+00 6.56365523E-04-1.41149485E-07 2.05797658E-11-1.29913248E-15    2
-1.21597725E+03 3.41536184E+00 3.78245636E+00-2.99673415E-03 9.84730200E-06    3
-9.68129508E-09 3.24372836E-12-1.06394356E+03 3.65767573E+00 0.00000000E+00    4
OH HYDROXYL RADI  IU3/03O   1H   1    0    0G   200.00   6000.00  1000.        1
 2.83853033E+00 1.10741289E-03-2.94000209E-07 4.20698729E-11-2.42289890E-15    2
 3.70056220E+03 5.84513094E+00 3.99198424E+00-2.40106655E-03 4.61664033E-06    3
-3.87916306E-09 1.36319502E-12 3.37165248E+03-1.03814059E-01                   4
!
 END

\\
\\
\\  This is the tran file
\\
\\
!
!  Transport Properties obtained from GRI-Mech 3.0
!
!  Additions (at top) for "Glarborg" mechanism.
!  Some of these represent changes to the GRI data.
!  Entered by Joe Grcar as recommended by Chris Pope.
!
C2H5CHO            2   424.600     4.820     0.000     0.000     1.000 ! NMM
C2H5CO             2   424.600     4.820     2.700     0.000     1.000 ! NMM, CJP
CH2CN              2   422.220     5.329     3.500     0.000     1.000 ! CJP
CH2HCO             2   436.000     3.970     0.000     0.000     2.000 ! CH2CHO
CH3CN              2   422.220     5.329     3.500     0.000     1.000 ! CJP
CH3HCO             2   436.000     3.970     0.000     0.000     2.000 ! CH3CHO
HONO               2   350.000     3.950     1.639     0.000     1.000 ! CJP
NO3                2   400.000     4.200     0.200     0.000     1.000 ! CJP
OCHCHO             2   440.200     4.010     0.000     0.000     2.000 ! NMM CHOCHO
NCN                1   422.220     5.329     2.000     0.000     1.000 ! CJP
NO                 1   139.320     3.339     0.200     1.760     4.000 ! CJP
HNO                2   170.000     3.430     1.620     0.000     1.000 ! CJP
NO2                2   333.590     3.852     0.400     0.000     1.000 ! CJP
!
AR                 0   136.500     3.330     0.000     0.000     0.000
C                  0    71.400     3.298     0.000     0.000     0.000 ! *
C2                 1    97.530     3.621     0.000     1.760     4.000
C2O                1   232.400     3.828     0.000     0.000     1.000 ! *
CN2                1   232.400     3.828     0.000     0.000     1.000 ! OIS
C2H                1   209.000     4.100     0.000     0.000     2.500
C2H2               1   209.000     4.100     0.000     0.000     2.500
C2H2OH             2   224.700     4.162     0.000     0.000     1.000 ! *
C2H3               2   209.000     4.100     0.000     0.000     1.000 ! *
C2H4               2   280.800     3.971     0.000     0.000     1.500
C2H5               2   252.300     4.302     0.000     0.000     1.500
C2H6               2   252.300     4.302     0.000     0.000     1.500
C2N                1   232.400     3.828     0.000     0.000     1.000 ! OIS
C2N2               1   349.000     4.361     0.000     0.000     1.000 ! OIS
C3H2               2   209.000     4.100     0.000     0.000     1.000 ! *
C3H4               1   252.000     4.760     0.000     0.000     1.000
C3H6               2   266.800     4.982     0.000     0.000     1.000
C3H7               2   266.800     4.982     0.000     0.000     1.000
C4H6               2   357.000     5.180     0.000     0.000     1.000
I*C3H7             2   266.800     4.982     0.000     0.000     1.000
N*C3H7             2   266.800     4.982     0.000     0.000     1.000
C3H8               2   266.800     4.982     0.000     0.000     1.000
C4H                1   357.000     5.180     0.000     0.000     1.000
C4H2               1   357.000     5.180     0.000     0.000     1.000
C4H2OH             2   224.700     4.162     0.000     0.000     1.000 ! *
C4H8               2   357.000     5.176     0.000     0.000     1.000
C4H9               2   357.000     5.176     0.000     0.000     1.000
I*C4H9             2   357.000     5.176     0.000     0.000     1.000
C5H2               1   357.000     5.180     0.000     0.000     1.000
C5H3               1   357.000     5.180     0.000     0.000     1.000
C6H2               1   357.000     5.180     0.000     0.000     1.000
C6H5               2   412.300     5.349     0.000     0.000     1.000 ! JAM
C6H5O              2   450.000     5.500     0.000     0.000     1.000 ! JAM
C5H5OH             2   450.000     5.500     0.000     0.000     1.000 ! JAM
C6H6               2   412.300     5.349     0.000     0.000     1.000 ! SVE
C6H7               2   412.300     5.349     0.000     0.000     1.000 ! JAM
CH                 1    80.000     2.750     0.000     0.000     0.000
CH2                1   144.000     3.800     0.000     0.000     0.000
CH2(S)             1   144.000     3.800     0.000     0.000     0.000
CH2*               1   144.000     3.800     0.000     0.000     0.000
CH2CHCCH           2   357.000     5.180     0.000     0.000     1.000 ! JAM
CH2CHCCH2          2   357.000     5.180     0.000     0.000     1.000 ! JAM
CH2CHCH2           2   260.000     4.850     0.000     0.000     1.000 ! JAM
CH2CHCHCH          2   357.000     5.180     0.000     0.000     1.000 ! JAM
CH2CHCHCH2         2   357.000     5.180     0.000     0.000     1.000 ! JAM
CH2CO              2   436.000     3.970     0.000     0.000     2.000
CH2O               2   498.000     3.590     0.000     0.000     2.000
CH2OH              2   417.000     3.690     1.700     0.000     2.000
CH3                1   144.000     3.800     0.000     0.000     0.000
CH3CC              2   252.000     4.760     0.000     0.000     1.000 ! JAM
CH3CCCH2           2   357.000     5.180     0.000     0.000     1.000 ! JAM
CH3CCCH3           2   357.000     5.180     0.000     0.000     1.000 ! JAM
CH3CCH2            2   260.000     4.850     0.000     0.000     1.000 ! JAM
CH3CHCH            2   260.000     4.850     0.000     0.000     1.000 ! JAM
CH3CH2CCH          2   357.000     5.180     0.000     0.000     1.000 ! JAM
CH3CHO             2   436.000     3.970     0.000     0.000     2.000
CH2CHO             2   436.000     3.970     0.000     0.000     2.000
CH3CO              2   436.000     3.970     0.000     0.000     2.000
CH3O               2   417.000     3.690     1.700     0.000     2.000
CH3OH              2   481.800     3.626     0.000     0.000     1.000 ! SVE
CH4                2   141.400     3.746     0.000     2.600    13.000
CH4O               2   417.000     3.690     1.700     0.000     2.000
CN                 1    75.000     3.856     0.000     0.000     1.000 ! OIS
CNC                1   232.400     3.828     0.000     0.000     1.000 ! OIS
CNN                1   232.400     3.828     0.000     0.000     1.000 ! OIS
CO                 1    98.100     3.650     0.000     1.950     1.800
CO2                1   244.000     3.763     0.000     2.650     2.100
H                  0   145.000     2.050     0.000     0.000     0.000
H2C4O              2   357.000     5.180     0.000     0.000     1.000 ! JAM
H2                 1    38.000     2.920     0.000     0.790   280.000
H2CCCCH            2   357.000     5.180     0.000     0.000     1.000 ! JAM
H2CCCCH2           2   357.000     5.180     0.000     0.000     1.000 ! JAM
H2CCCH             2   252.000     4.760     0.000     0.000     1.000 ! JAM
H2CN               1   569.000     3.630     0.000     0.000     1.000 ! os/jm
H2NO               2   116.700     3.492     0.000     0.000     1.000 ! JAM
H2O                2   572.400     2.605     1.844     0.000     4.000
H2O2               2   107.400     3.458     0.000     0.000     3.800
HC2N2              1   349.000     4.361     0.000     0.000     1.000 ! OIS
HCCHCCH            2   357.000     5.180     0.000     0.000     1.000 ! JAM
HCCO               2   150.000     2.500     0.000     0.000     1.000 ! *
HCNN               2   150.000     2.500     0.000     0.000     1.000 ! *
HCCOH              2   436.000     3.970     0.000     0.000     2.000
HCN                1   569.000     3.630     0.000     0.000     1.000 ! OIS
HCO                2   498.000     3.590     0.000     0.000     0.000
HE                 0    10.200     2.576     0.000     0.000     0.000 ! *
HCNO               2   232.400     3.828     0.000     0.000     1.000 ! JAM
HOCN               2   232.400     3.828     0.000     0.000     1.000 ! JAM
HNCO               2   232.400     3.828     0.000     0.000     1.000 ! OIS
HNNO               2   232.400     3.828     0.000     0.000     1.000 ! *
HNO                2   116.700     3.492     0.000     0.000     1.000 ! *
HNOH               2   116.700     3.492     0.000     0.000     1.000 ! JAM
HO2                2   107.400     3.458     0.000     0.000     1.000 ! *
N                  0    71.400     3.298     0.000     0.000     0.000 ! *
N2                 1    97.530     3.621     0.000     1.760     4.000
N2H2               2    71.400     3.798     0.000     0.000     1.000 ! *
N2H3               2   200.000     3.900     0.000     0.000     1.000 ! *
N2H4               2   205.000     4.230     0.000     4.260     1.500
N2O                1   232.400     3.828     0.000     0.000     1.000 ! *
NCO                1   232.400     3.828     0.000     0.000     1.000 ! OIS
NH                 1    80.000     2.650     0.000     0.000     4.000
NH2                2    80.000     2.650     0.000     2.260     4.000
NH3                2   481.000     2.920     1.470     0.000    10.000
NNH                2    71.400     3.798     0.000     0.000     1.000 ! *
NO                 1    97.530     3.621     0.000     1.760     4.000
NCNO               2   232.400     3.828     0.000     0.000     1.000 ! OIS
NO2                2   200.000     3.500     0.000     0.000     1.000 ! *
O                  0    80.000     2.750     0.000     0.000     0.000
O2                 1   107.400     3.458     0.000     1.600     3.800
OH                 1    80.000     2.750     0.000     0.000     0.000

#endif
