!<><><><><><><><><><><><><><><><><><><><><><><><><><><><><><><><><><><><><!     
!  simple 3 species gas mixture  to fluctest     
!<><><><><><><><><><><><><><><><><><><><><><><><><><><><><><><><><><><><><!     
ELEMENTS                                                                        
O  H  C  N                                                                
END                                                                             
SPECIES                                                                         
H2      CO2     N2
END                                                                             
REACTIONS                                                                       
END                                                                             
