ELEMENTS
O  H  C  N 
END
SPECIES
O2      H2O     CH4     CO      CO2     N2 
END
REACTIONS
2CH4 + 3O2  =>  2CO + 4H2O 1.545E+14    0.500   39895.
  FORD /CH4 1.0/
  FORD /O2 1.0/
2CO + O2  => 2CO2          1.991E+14    0.000   40000. 
  FORD /CO  1.0/
  FORD /H2O 0.5/
  FORD /O2  0.25/
2CO2 => 2CO + O2           2.500E+8     0.000   40000.
  FORD /CO2 1.0/
END
