ELEMENTS C H O N END
SPECIES  CH3 CH4 CH2O CO2 CO H HCO HO2 H2 H2O N2 O O2 OH CH3O H2O2 END
REACTIONS CAL
   CH3+H=CH4                     1.90E+36  -7.000   9050.
   CH4+O2=CH3+HO2                7.90E+13   0.000  56000.
   CH4+H=CH3+H2                  2.20E+04   3.000   8750.
   CH4+O=CH3+OH                  1.60E+06   2.360   7400.
   CH4+OH=CH3+H2O                1.60E+06   2.100   2460.
   CH2O+OH=HCO+H2O               7.53E+12   0.000    167.
   CH2O+H=HCO+H2                 3.31E+14   0.000  10500.
   CH2O+M=HCO+H+M                3.31E+16   0.000  81000.
   CH2O+O=HCO+OH                 1.81E+13   0.000   3082.
   HCO+OH=CO+H2O                 5.00E+12   0.000      0.
   HCO+M=H+CO+M                  1.60E+14   0.000  14700.
   HCO+H=CO+H2                   4.00E+13   0.000      0.
   HCO+O=OH+CO                   1.00E+13   0.000      0.
   HCO+O2=HO2+CO                 3.00E+12   0.000      0.
   CO+O+M=CO2+M                  3.20E+13   0.000  -4200.
   CO+OH=CO2+H                   1.51E+07   1.300   -758.
   CO+O2=CO2+O                   1.60E+13   0.000  41000.
   CH3+O2=CH3O+O                 7.00E+12   0.000  25652.
   CH3O+M=CH2O+H+M               2.40E+13   0.000  28812.
   CH3O+H=CH2O+H2                2.00E+13   0.000      0.
   CH3O+OH=CH2O+H2O              1.00E+13   0.000      0.
   CH3O+O=CH2O+OH                1.00E+13   0.000      0.
   CH3O+O2=CH2O+HO2              6.30E+10   0.000   2600.
   CH3+O2=CH2O+OH                5.20E+13   0.000  34574.
   CH3+O=CH2O+H                  6.80E+13   0.000      0.
   CH3+OH=CH2O+H2                7.50E+12   0.000      0.
   HO2+CO=CO2+OH                 5.80E+13   0.000  22934.
   H2+O2=2OH                     1.70E+13   0.000  47780.
   OH+H2=H2O+H                   1.17E+09   1.300   3626.
   H+O2=OH+O                     2.00E+14   0.000  16800.
   O+H2=OH+H                     1.80E+10   1.000   8826.
   H+O2+M=HO2+M                  2.10E+18  -1.000      0.
      H2O /21.0/  CO2 /5.0/  H2 /3.3/  CO /2.0/ O2 /0.0/ N2 /0.0/
   H+O2+O2=HO2+O2                6.70E+19  -1.420      0.
   H+O2+N2=HO2+N2                6.70E+19  -1.420      0.
   OH+HO2=H2O+O2                 5.00E+13   0.000   1000.
   H+HO2=2OH                     2.50E+14   0.000   1900.
   O+HO2=O2+OH                   4.80E+13   0.000   1000.
   2OH=O+H2O                     6.00E+08   1.300      0.
   H2+M=H+H+M                    2.23E+12   0.500  92600.
      H2O /6.0/  H /2.0/  H2 /3.0/
   O2+M=O+O+M                    1.85E+11   0.500  95560.
   H+OH+M=H2O+M                  7.50E+23  -2.600      0.
      H2O /20.0/
   H+HO2=H2+O2                   2.5E+13    0.000    700.
   HO2+HO2=H2O2+O2               2.00E+12   0.000      0.
   H2O2+M=OH+OH+M                1.30E+17   0.000  45500.
   H2O2+H=HO2+H2                 1.60E+12   0.000   3800.
   H2O2+OH=H2O+HO2               1.00E+13   0.000   1800.
END
