! GRI-Mech Version 3.0 7/30/99  CHEMKIN-II format
! See README30 file at anonymous FTP site unix.sri.com, directory gri;
! WorldWideWeb home page http://www.me.berkeley.edu/gri_mech/ or
! through http://www.gri.org , under 'Basic  Research', 
! for additional information, contacts, and disclaimer
ELEMENTS
! O  H  C  N  AR
N  O  H
END
SPECIES
H2      H       O       O2      OH      H2O     HO2     H2O2    
N       NH      
NH2     NH3     NNH     NO      NO2     N2O     HNO
N2      
END
!THERMO
! Insert GRI-Mech thermodynamics here or use in default file
!END
REACTIONS
2O+M<=>O2+M                              1.200E+17   -1.000        .00
H2/ 2.40/ H2O/15.40/
O+H+M<=>OH+M                             5.000E+17   -1.000        .00
H2/2.00/ H2O/6.00/
O+H2<=>H+OH                              3.870E+04    2.700    6260.00
O+HO2<=>OH+O2                            2.000E+13     .000        .00
O+H2O2<=>OH+HO2                          9.630E+06    2.000    4000.00
H+O2+M<=>HO2+M                           2.800E+18    -.860        .00
O2/ .00/ H2O/ .00/ N2/ .00/
H+2O2<=>HO2+O2                           2.080E+19   -1.240        .00
H+O2+H2O<=>HO2+H2O                       11.26E+18    -.760        .00
H+O2+N2<=>HO2+N2                         2.600E+19   -1.240        .00
H+O2<=>O+OH                              2.650E+16    -.6707  17041.00
2H+M<=>H2+M                              1.000E+18   -1.000        .00
H2/ .00/ H2O/ .00/
2H+H2<=>2H2                              9.000E+16    -.600        .00
2H+H2O<=>H2+H2O                          6.000E+19   -1.250        .00
H+OH+M<=>H2O+M                           2.200E+22   -2.000        .00
H2/ .73/ H2O/3.65/
H+HO2<=>O+H2O                            3.970E+12     .000     671.00
H+HO2<=>O2+H2                            4.480E+13     .000    1068.00
H+HO2<=>2OH                              0.840E+14     .000     635.00
H+H2O2<=>HO2+H2                          1.210E+07    2.000    5200.00
H+H2O2<=>OH+H2O                          1.000E+13     .000    3600.00
OH+H2<=>H+H2O                            2.160E+08    1.510    3430.00
2OH(+M)<=>H2O2(+M)                       7.400E+13    -.370        .00
     LOW  /  2.300E+18    -.900  -1700.00/
     TROE/   .7346   94.00  1756.00  5182.00 /
H2/2.00/ H2O/6.00/
2OH<=>O+H2O                              3.570E+04    2.400   -2110.00
OH+HO2<=>O2+H2O                          1.450E+13     .000    -500.00
 DUPLICATE
OH+H2O2<=>HO2+H2O                        2.000E+12     .000     427.00
 DUPLICATE
OH+H2O2<=>HO2+H2O                        1.700E+18     .000   29410.00
 DUPLICATE
2HO2<=>O2+H2O2                           1.300E+11     .000   -1630.00
 DUPLICATE
2HO2<=>O2+H2O2                           4.200E+14     .000   12000.00
 DUPLICATE
N+NO<=>N2+O                              2.700E+13     .000     355.00
N+O2<=>NO+O                              9.000E+09    1.000    6500.00
N+OH<=>NO+H                              3.360E+13     .000     385.00
N2O+O<=>N2+O2                            1.400E+12     .000   10810.00
N2O+O<=>2NO                              2.900E+13     .000   23150.00
N2O+H<=>N2+OH                            3.870E+14     .000   18880.00
N2O+OH<=>N2+HO2                          2.000E+12     .000   21060.00
N2O(+M)<=>N2+O(+M)                       7.910E+10     .000   56020.00
     LOW  /  6.370E+14     .000  56640.00/
H2/2.00/ H2O/6.00/
HO2+NO<=>NO2+OH                          2.110E+12     .000    -480.00
NO+O+M<=>NO2+M                           1.060E+20   -1.410        .00
H2/2.00/ H2O/6.00/
NO2+O<=>NO+O2                            3.900E+12     .000    -240.00
NO2+H<=>NO+OH                            1.320E+14     .000     360.00
NH+O<=>NO+H                              4.000E+13     .000        .00
NH+H<=>N+H2                              3.200E+13     .000     330.00
NH+OH<=>HNO+H                            2.000E+13     .000        .00
NH+OH<=>N+H2O                            2.000E+09    1.200        .00
NH+O2<=>HNO+O                            4.610E+05    2.000    6500.00
NH+O2<=>NO+OH                            1.280E+06    1.500     100.00
NH+N<=>N2+H                              1.500E+13     .000        .00
NH+H2O<=>HNO+H2                          2.000E+13     .000   13850.00
NH+NO<=>N2+OH                            2.160E+13    -.230        .00
NH+NO<=>N2O+H                            3.650E+14    -.450        .00
NH2+O<=>OH+NH                            3.000E+12     .000        .00
NH2+O<=>H+HNO                            3.900E+13     .000        .00
NH2+H<=>NH+H2                            4.000E+13     .000    3650.00
NH2+OH<=>NH+H2O                          9.000E+07    1.500    -460.00
NNH<=>N2+H                               3.300E+08     .000        .00
NNH+M<=>N2+H+M                           1.300E+14    -.110    4980.00
H2/2.00/ H2O/6.00/
NNH+O2<=>HO2+N2                          5.000E+12     .000        .00
NNH+O<=>OH+N2                            2.500E+13     .000        .00
NNH+O<=>NH+NO                            7.000E+13     .000        .00
NNH+H<=>H2+N2                            5.000E+13     .000        .00
NNH+OH<=>H2O+N2                          2.000E+13     .000        .00
H+NO+M<=>HNO+M                           4.480E+19   -1.320     740.00
H2/2.00/ H2O/6.00/
HNO+O<=>NO+OH                            2.500E+13     .000        .00
HNO+H<=>H2+NO                            9.000E+11     .720     660.00
HNO+OH<=>NO+H2O                          1.300E+07    1.900    -950.00
HNO+O2<=>HO2+NO                          1.000E+13     .000   13000.00
NH3+H<=>NH2+H2                           5.400E+05    2.400    9915.00
NH3+OH<=>NH2+H2O                         5.000E+07    1.600     955.00
NH3+O<=>NH2+OH                           9.400E+06    1.940    6460.00
OH+HO2<=>O2+H2O                          0.500E+16     .000   17330.00
  DUPLICATE
END
