
ELEMENTS
O N 
END

SPECIES
O2     N2
END

REACTIONS
END
