ELEMENTS
N AR O  H  C  
END
SPECIES
N2              AR              O               NO              N               
O2              OH              H               CH              HCN             
NCO             CO              NH              H2              HNCO            
HCCO            NH2             CO2             H2O             CN              
HNO             N2O             N2H             NH3             CH3             
T-CH2           HO2             NO2             
END
REACTIONS
O+N2<=>NO+N                              1.470e+13    0.300  75286.81
N+O2<=>NO+O                              6.400e+09    1.000   6285.85
N+OH<=>NO+H                              3.800e+13    0.000      0.00
N2+CH<=>HCN+N                            4.400e+12    0.000  21988.53
HCN+O<=>NCO+H                            1.400e+06    2.100   6118.55
NCO+M<=>N+CO+M                           3.100e+16   -0.500  48040.15
N2/1.50/ O2/1.50/ H2O/18.60/ 

NCO+H<=>CO+NH                            5.000e+13    0.000      0.00
NCO+O<=>NO+CO                            4.700e+13    0.000      0.00
NCO+H2<=>HNCO+H                          7.600e+02    3.000   3991.40
HCCO+NO<=>HNCO+CO                        2.000e+13    0.000      0.00
HNCO+M<=>NH+CO+M                         1.100e+16    0.000  86042.07
N2/1.50/ O2/1.50/ H2O/18.60/ 

HNCO+H<=>NH2+CO                          2.200e+07    1.700   3800.19
HNCO+O<=>NCO+OH                          2.200e+06    2.110  11448.37
HNCO+O<=>NH+CO2                          9.600e+07    1.410   8532.50
HNCO+OH<=>NCO+H2O                        6.400e+05    2.000   2557.36
CN+H2<=>HCN+H                            3.600e+08    1.550   3011.47
CN+H2O<=>HCN+OH                          7.800e+12    0.000   7456.98
CN+OH<=>NCO+H                            4.200e+13    0.000      0.00
CN+O2<=>NCO+O                            7.200e+12    0.000   -418.26
NH+H<=>N+H2                              1.000e+13    0.000      0.00
NH+O<=>NO+H                              9.200e+13    0.000      0.00
NH+OH<=>HNO+H                            4.000e+13    0.000      0.00
NH+OH<=>N+H2O                            5.000e+11    0.500   2000.48
NH+O2<=>HNO+O                            4.600e+05    2.000   6500.96
NH+NO<=>N2O+H                            3.200e+14   -0.450      0.00
NH+NO<=>N2+OH                            2.200e+13   -0.230      0.00
NH2+H<=>NH+H2                            4.000e+13    0.000   3652.01
NH2+O<=>HNO+H                            9.900e+14   -0.500      0.00
NH2+OH<=>NH+H2O                          4.000e+06    2.000   1001.43
NH2+NO<=>N2+H2O                          2.000e+20   -2.600    924.95
NH2+NO<=>N2H+OH                          9.300e+11    0.000      0.00
NH3+M<=>NH2+H+M                          2.200e+16    0.000  93451.24

NH3+H<=>NH2+H2                           6.400e+05    2.390  10181.64
NH3+O<=>NH2+OH                           9.400e+06    1.940   6465.11
NH3+OH<=>NH2+H2O                         2.040e+06    2.040    566.44
N2H<=>N2+H                               1.000e+08    0.000      0.00
N2H+H<=>N2+H2                            1.000e+14    0.000      0.00
N2H+O<=>N2O+H                            1.000e+14    0.000      0.00
N2H+OH<=>N2+H2O                          5.000e+13    0.000      0.00
HNO+M<=>H+NO+M                           1.500e+16    0.000  48757.17
N2/2.00/ O2/2.00/ H2/2.00/ H2O/10.00/ 

HNO+H<=>NO+H2                            4.400e+11    0.720    650.10
HNO+OH<=>NO+H2O                          3.600e+13    0.000      0.00
NO+CH3=>HCN+H2O                          8.300e+11    0.000  16085.09
NO+T-CH2<=>HNCO+H                        2.900e+12    0.000   -597.51
NO+CH<=>HCN+O                            1.100e+14    0.000      0.00
N2O(+M)<=>N2+O(+M)                       8.000e+11    0.000  62619.50
     LOW  /  2.000e+14    0.000  56644.36 /
N2O+H<=>N2+OH                            2.230e+14    0.000  16754.30
N2O+O<=>2 NO                             2.900e+13    0.000  23159.66
N2O+OH<=>N2+HO2                          2.000e+12    0.000  10000.00
NO2+M<=>NO+O+M                           1.000e+16    0.000  65965.58

NO+HO2<=>NO2+OH                          2.100e+12    0.000   -480.40
NO2+H<=>NO+OH                            3.500e+14    0.000   1500.96
NO2+O<=>NO+O2                            1.000e+13    0.000    599.90
END
