
ELEMENTS
C H O N 
END

SPECIES
H	H2	CH3	O	CH4
OH	H2O	C2H2	CO	C2H4
C2H5	CH2O	C2H6	CH3O	O2
HO2	H2O2	CO2	CH3HCO	HCOOH
CH3OCH3	CH3OCO	CH3OCHO	CH3OCH2OH
OCH2OCHO	HOCH2OCO	CH3OCH2O2
HO2CH2OCHO	O2CH2OCH2O2H	N2	
END

REACTIONS
!1
H+O2 = O+OH                                 0.0	       0.0   0.0
!2
O+H2 = H+OH                                 0.0	       0.0   0.0 
!3
H2+OH = H2O+H                               0.0	       0.0   0.0
END
