THERMO
       300      1000      5000
N2                000000N   2O   0H   0C   0G       300      5000    1000      1
 2.92664000E+00 1.48797700E-03-5.68476100E-07 1.00970400E-10-6.75335100E-15    2
-9.22797700E+02 5.98052800E+00 3.29867700E+00 1.40824000E-03-3.96322200E-06    3
 5.64151500E-09-2.44485500E-12-1.02090000E+03 3.95037200E+00                   4
AR                000000AR  1O   0H   0C   0G       300      5000    1000      1
 2.50000000E+00 0.00000000E+00 0.00000000E+00 0.00000000E+00 0.00000000E+00    2
-7.45375000E+02 4.36600100E+00 2.50000000E+00 0.00000000E+00 0.00000000E+00    3
 0.00000000E+00 0.00000000E+00-7.45375000E+02 4.36600100E+00                   4
O                 000000N   0O   1H   0C   0G       300      5000    1000      1
 2.54206000E+00-2.75506200E-05-3.10280300E-09 4.55106700E-12-4.36805200E-16    2
 2.92308000E+04 4.92030800E+00 2.94642900E+00-1.63816600E-03 2.42103200E-06    3
-1.60284300E-09 3.89069600E-13 2.91476400E+04 2.96399500E+00                   4
O2                000000N   0O   2H   0C   0G       300      5000    1000      1
 3.69757800E+00 6.13519700E-04-1.25884200E-07 1.77528100E-11-1.13643500E-15    2
-1.23393000E+03 3.18916600E+00 3.21293600E+00 1.12748600E-03-5.75615000E-07    3
 1.31387700E-09-8.76855400E-13-1.00524900E+03 6.03473800E+00                   4
H2                000000N   0O   0H   2C   0G       300      5000    1000      1
 2.99142300E+00 7.00064400E-04-5.63382900E-08-9.23157800E-12 1.58275200E-15    2
-8.35034000E+02-1.35511000E+00 3.29812400E+00 8.24944200E-04-8.14301500E-07    3
-9.47543400E-11 4.13487200E-13-1.01252100E+03-3.29409400E+00                   4
H                 000000N   0O   0H   1C   0G       300      5000    1000      1
 2.50104422E+00 0.00000000E+00 0.00000000E+00 0.00000000E+00 0.00000000E+00    2
 2.54747466E+04-4.65341317E-01 2.50104422E+00 0.00000000E+00 0.00000000E+00    3
 0.00000000E+00 0.00000000E+00 2.54747466E+04-4.65341317E-01                   4
OH                000000N   0O   1H   1C   0G       300      5000    1000      1
 3.69039275E+00-5.80802318E-04 7.63303256E-07-1.80262059E-10 0.00000000E+00    2
 3.67872158E+03 1.15883087E+00 3.43586219E+00 2.02235804E-04-1.13546412E-07    3
 2.42445149E-10-7.43651031E-14 3.74321252E+03 2.45014127E+00                   4
H2O2              000000N   0O   2H   2C   0G       300      5000    1000      1
 4.57316700E+00 4.33613600E-03-1.47468900E-06 2.34890400E-10-1.43165400E-14    2
-1.80069600E+04 5.01137000E-01 3.38875400E+00 6.56922600E-03-1.48501300E-07    3
-4.62580600E-09 2.47151500E-12-1.76631500E+04 6.78536300E+00                   4
H2O               000000N   0O   1H   2C   0G       300      5000    1000      1
 2.67214600E+00 3.05629300E-03-8.73026000E-07 1.20099600E-10-6.39161800E-15    2
-2.98992100E+04 6.86281700E+00 3.38684200E+00 3.47498200E-03-6.35469600E-06    3
 6.96858100E-09-2.50658800E-12-3.02081100E+04 2.59023300E+00                   4
HO2               000000N   0O   2H   1C   0G       300      5000    1000      1
 3.00201579E+00 4.38552424E-03-1.97594219E-06 3.32090097E-10 0.00000000E+00    2
 8.44944001E+02 9.26704616E+00 3.18310656E+00 3.66767950E-03-9.32385122E-07    3
-3.25852919E-10 1.51139912E-13 8.09181013E+02 8.39371099E+00                   4
HCO               000000N   0O   1H   1C   1G       300      5000    1000      1
 3.55727100E+00 3.34557300E-03-1.33500600E-06 2.47057300E-10-1.71385100E-14    2
 3.91632400E+03 5.55229900E+00 2.89833000E+00 6.19914700E-03-9.62308400E-06    3
 1.08982500E-08-4.57488500E-12 4.15992200E+03 8.98361400E+00                   4
CH2               000000N   0O   0H   2C   1G       300      5000    1000      1
 3.63640800E+00 1.93305700E-03-1.68701600E-07-1.00989900E-10 1.80825600E-14    2
 4.53413400E+04 2.15656100E+00 3.76223700E+00 1.15981900E-03 2.48958500E-07    3
 8.80083600E-10-7.33243500E-13 4.53679100E+04 1.71257800E+00                   4
CO                000000N   0O   1H   0C   1G       300      5000    1000      1
 3.02507800E+00 1.44268900E-03-5.63082800E-07 1.01858100E-10-6.91095200E-15    2
-1.42683500E+04 6.10821800E+00 3.26245200E+00 1.51194100E-03-3.88175500E-06    3
 5.58194400E-09-2.47495100E-12-1.43105400E+04 4.84889700E+00                   4
CH2O              000000N   0O   1H   2C   1G       300      5000    1000      1
 2.99560600E+00 6.68132100E-03-2.62895500E-06 4.73715300E-10-3.21251700E-14    2
-1.53203700E+04 6.91257200E+00 1.65273100E+00 1.26314400E-02-1.88816800E-05    3
 2.05003100E-08-8.41323700E-12-1.48654000E+04 1.37848200E+01                   4
CO2               000000N   0O   2H   0C   1G       300      5000    1000      1
 4.45362300E+00 3.14016900E-03-1.27841100E-06 2.39399700E-10-1.66903300E-14    2
-4.89669600E+04-9.55395900E-01 2.27572500E+00 9.92207200E-03-1.04091100E-05    3
 6.86668700E-09-2.11728000E-12-4.83731400E+04 1.01884900E+01                   4
CH3               000000N   0O   0H   3C   1G       300      5000    1000      1
 2.84405200E+00 6.13797400E-03-2.23034500E-06 3.78516100E-10-2.45215900E-14    2
 1.64378100E+04 5.45269700E+00 2.43044300E+00 1.11241000E-02-1.68022000E-05    3
 1.62182900E-08-5.86495300E-12 1.64237800E+04 6.78979400E+00                   4
CH4               000000N   0O   0H   4C   1G       300      5000    1000      1
 1.68347900E+00 1.02372400E-02-3.87512900E-06 6.78558500E-10-4.50342300E-14    2
-1.00807900E+04 9.62339500E+00 7.78741500E-01 1.74766800E-02-2.78340900E-05    3
 3.04970800E-08-1.22393100E-11-9.82522900E+03 1.37221900E+01                   4
C2H4              000000N   0O   0H   4C   2G       300      5000    1000      1
 3.52841900E+00 1.14851800E-02-4.41838500E-06 7.84460100E-10-5.26684800E-14    2
 4.42828900E+03 2.23038900E+00-8.61488000E-01 2.79616300E-02-3.38867700E-05    3
 2.78515200E-08-9.73787900E-12 5.57304600E+03 2.42114900E+01                   4
CH3OH             000000N   0O   1H   4C   1G       300      5000    1000      1
 4.02906100E+00 9.37659300E-03-3.05025400E-06 4.35879300E-10-2.22472300E-14    2
-2.61579100E+04 2.37819600E+00 2.66011500E+00 7.34150800E-03 7.17005100E-06    3
-8.79319400E-09 2.39057000E-12-2.53534800E+04 1.12326300E+01                   4
C2H5              000000N   0O   0H   5C   2G       300      5000    1000      1
 7.19048000E+00 6.48407700E-03-6.42806500E-07-2.34787900E-10 3.88087700E-14    2
 1.06745500E+04-1.47808900E+01 2.69070200E+00 8.71913300E-03 4.41983900E-06    3
 9.33870300E-10-3.92777300E-12 1.28704000E+04 1.21382000E+01                   4
C2H6              000000N   0O   0H   6C   2G       300      5000    1000      1
 2.78247515E-01 2.31689676E-02-1.02319436E-05 1.67699340E-09 0.00000000E+00    2
-1.13124605E+04 1.96191748E+01-2.52854344E-02 2.40764754E-02-1.11893472E-05    3
 2.08340901E-09-5.29868616E-14-1.12345534E+04 2.11648750E+01                   4
CH3O              000000N   0O   1H   3C   1G       300      5000    1000      1
 3.77080000E+00 7.87149700E-03-2.65638400E-06 3.94443100E-10-2.11261600E-14    2
 1.27832500E+02 2.92957500E+00 2.10620400E+00 7.21659500E-03 5.33847200E-06    3
-7.37763600E-09 2.07561100E-12 9.78601100E+02 1.31521800E+01                   4
HOCHO             000000N   0O   2H   2C   1G       300      5000    1000      1
 2.71806922E+00 1.23155199E-02-6.02976465E-06 1.06137058E-09 0.00000000E+00    2
-4.67812848E+04 1.08043488E+01 1.43548185E+00 1.63363016E-02-1.06257421E-05    3
 3.32132977E-09-4.02176103E-13-4.64616504E+04 1.72885798E+01                   4
CH3O2             000000N   0O   2H   3C   1G       300      5000    1000      1
 3.72224006E+00 1.15430493E-02-4.55058763E-06 6.70308528E-10 0.00000000E+00    2
-5.34692750E+02 7.95706399E+00 4.26146906E+00 1.00873599E-02-3.21506184E-06    3
 2.09409267E-10 4.18339103E-14-6.84394259E+02 5.16330320E+00                   4
CH3O2H            000000N   0O   2H   4C   1G       300      5000    1000      1
 4.46640989E+00 1.51021326E-02-6.80105535E-06 1.13252538E-09 0.00000000E+00    2
-1.80236075E+04 3.04195823E+00 3.23442817E+00 1.90129767E-02-1.13386287E-05    3
 3.40306653E-09-4.11830222E-13-1.77197926E+04 9.25623949E+00                   4
C2H2              000000N   0O   0H   2C   2G       300      5000    1000      1
 4.43677000E+00 5.37603900E-03-1.91281700E-06 3.28637900E-10-2.15671000E-14    2
 2.56676600E+04-2.80033800E+00 2.01356200E+00 1.51904500E-02-1.61631900E-05    3
 9.07899200E-09-1.91274600E-12 2.61244400E+04 8.80537800E+00                   4
CH2CO             000000N   0O   1H   2C   2G       300      5000    1000      1
 6.03881700E+00 5.80484000E-03-1.92095400E-06 2.79448500E-10-1.45886800E-14    2
-8.58340200E+03-7.65758100E+00 2.97497100E+00 1.21187100E-02-2.34504600E-06    3
-6.46668500E-09 3.90564900E-12-7.63263700E+03 8.67355300E+00                   4
C3H4XA            000000N   0O   0H   4C   3G       300      5000    1000      1
 1.97418459E+00 2.05280021E-02-1.01844059E-05 1.87323627E-09 0.00000000E+00    2
 2.25034216E+04 1.21178939E+01 2.53983100E+00 1.63343700E-02-1.76495000E-06    3
-4.64736500E-09 1.72913100E-12 2.25124300E+04 9.93570200E+00                   4
C3H4XP            000000N   0O   0H   4C   3G       300      5000    1000      1
 1.76237742E+00 2.05568619E-02-1.01191630E-05 1.83936170E-09 0.00000000E+00    2
 2.17000925E+04 1.39629625E+01 3.02973000E+00 1.49896100E-02-1.39850000E-06    3
-3.96961900E-09 1.38821700E-12 2.14840800E+04 8.00459400E+00                   4
C3H5XA            000000N   0O   0H   5C   3G       300      5000    1000      1
 3.66851913E+00 1.96203316E-02-8.52931569E-06 1.38113234E-09 0.00000000E+00    2
 1.83798091E+04 4.27588674E+00-5.29131958E-01 3.34559100E-02-2.53401027E-05    3
 1.02865754E-08-1.73258340E-12 1.93834226E+04 2.53067131E+01                   4
C2H3              000000N   0O   0H   3C   2G       300      5000    1000      1
 5.93346800E+00 4.01774600E-03-3.96674000E-07-1.44126700E-10 2.37864400E-14    2
 3.18543500E+04-8.53031300E+00 2.45927600E+00 7.37147600E-03 2.10987300E-06    3
-1.32164200E-09-1.18478400E-12 3.33522500E+04 1.15562000E+01                   4
CH3CHO            000000N   0O   1H   4C   2G       300      5000    1000      1
 5.86865000E+00 1.07942400E-02-3.64553000E-06 5.41291200E-10-2.89684400E-14    2
-2.26456900E+04-6.01294600E+00 2.50569500E+00 1.33699100E-02 4.67195300E-06    3
-1.12814000E-08 4.26356600E-12-2.12458900E+04 1.33508900E+01                   4
C2H5O2            000000N   0O   2H   5C   2G       300      5000    1000      1
 3.82827163E+00 2.20715592E-02-9.59354350E-06 1.53464150E-09 0.00000000E+00    2
-5.38085087E+03 8.79994592E+00 2.26846188E+00 2.76942578E-02-1.70804106E-05    3
 5.87951878E-09-9.20899069E-13-5.03880758E+03 1.64773972E+01                   4
C3H3              000000N   0O   0H   3C   3G       300      5000    1000      1
 8.83104700E+00 4.35719500E-03-4.10906700E-07-2.36872300E-10 4.37652000E-14    2
 3.84742000E+04-2.17791900E+01 4.75420000E+00 1.10802800E-02 2.79332300E-07    3
-5.47921200E-09 1.94962900E-12 3.98888300E+04 5.85454900E-01                   4
C3H6              000000N   0O   0H   6C   3G       300      5000    1000      1
 1.68134957E+00 2.49690718E-02-1.11276041E-05 1.84413526E-09 0.00000000E+00    2
 7.40726095E+02 1.53699482E+01 3.94615444E-01 2.89107662E-02-1.54886808E-05    3
 3.88814209E-09-3.37890352E-13 1.06688164E+03 2.19003736E+01                   4
C2H3CHO           000000N   0O   1H   4C   3G       300      5000    1000      1
 5.56154592E+00 1.79295837E-02-8.03464758E-06 1.32295375E-09 0.00000000E+00    2
-1.29035886E+04-3.47372739E+00 2.92355162E-01 3.54321417E-02-2.94936324E-05    3
 1.28100124E-08-2.26144108E-12-1.16521584E+04 2.28878280E+01                   4
CH3COCH2          000000N   0O   1H   5C   3G       300      5000    1000      1
 4.27637519E+00 2.22349285E-02-1.00918419E-05 1.68997058E-09 0.00000000E+00    2
-5.97887937E+03 5.34578139E+00 1.80339187E+00 3.01407085E-02-1.93505552E-05    3
 6.38199034E-09-8.66103180E-13-5.37233261E+03 1.78046408E+01                   4
NXC3H7            000000N   0O   0H   7C   3G       300      5000    1000      1
 7.97829100E+00 1.57611300E-02-5.17324300E-06 7.44389200E-10-3.82497800E-14    2
 7.57940200E+03-1.93561100E+01 1.92253700E+00 2.47892700E-02 1.81024900E-06    3
-1.78326600E-08 8.58299600E-12 9.71328100E+03 1.39927100E+01                   4
C3H8              000000N   0O   0H   8C   3G       300      5000    1000      1
 7.52521700E+00 1.88903400E-02-6.28392400E-06 9.17937300E-10-4.81241000E-14    2
-1.64645500E+04-1.78439000E+01 8.96920800E-01 2.66898600E-02 5.43142500E-06    3
-2.12600100E-08 9.24333000E-12-1.39549200E+04 1.93553300E+01                   4
CH3COCH3          000000N   0O   1H   6C   3G       300      5000    1000      1
 1.07057510E+00 3.05641014E-02-1.43848777E-05 2.47538664E-09 0.00000000E+00    2
-2.75121809E+04 2.06647304E+01 1.30767163E+00 2.92021742E-02-1.19045617E-05    3
 6.52150087E-10 4.67751203E-13-2.75328269E+04 1.96395025E+01                   4
IXC3H7O2          000000N   0O   2H   7C   3G       300      5000    1000      1
 6.12023736E+00 2.85231950E-02-1.23003518E-05 1.95801865E-09 0.00000000E+00    2
-1.13282549E+04-2.75966759E+00 1.49941639E+00 4.43081205E-02-3.22414456E-05    3
 1.29687136E-08-2.23370569E-12-1.02587980E+04 2.02336490E+01                   4
NXC3H7O2          000000N   0O   2H   7C   3G       300      5000    1000      1
 4.71102090E+00 3.06142048E-02-1.34432869E-05 2.17481455E-09 0.00000000E+00    2
-8.53286429E+03 5.98366370E+00 2.10731492E+00 3.96164986E-02-2.49491599E-05    3
 8.59450300E-09-1.31240330E-12-7.93745567E+03 1.89082748E+01                   4
C4H6              000000N   0O   0H   6C   4G       300      5000    1000      1
 6.31773432E+00 2.17235924E-02-8.92512394E-06 1.36214233E-09 0.00000000E+00    2
 9.94065362E+03-9.56816296E+00-1.43095121E+00 4.78706062E-02-4.15446800E-05    3
 1.91549552E-08-3.57158507E-12 1.17551314E+04 2.90825833E+01                   4
C4H8X1            000000N   0O   0H   8C   4G       300      5000    1000      1
 3.04470367E+00 3.27451765E-02-1.45363237E-05 2.39744017E-09 0.00000000E+00    2
-2.52177534E+03 1.00151514E+01-8.31372089E-01 4.52580978E-02-2.93658559E-05    3
 1.00220436E-08-1.43191680E-12-1.57875035E+03 2.95084236E+01                   4
IXC4H7            000000N   0O   0H   7C   4G       300      5000    1000      1
 4.86718299E+00 2.75411161E-02-1.19816020E-05 1.93828198E-09 0.00000000E+00    2
 1.34120718E+04-1.04709781E+00-7.20881697E-04 4.36495730E-02-3.16385877E-05    3
 1.23984983E-08-2.04378360E-12 1.45717785E+04 2.33234340E+01                   4
IXC4H8            000000N   0O   0H   8C   4G       300      5000    1000      1
 2.86958571E+00 3.29649207E-02-1.46431210E-05 2.41629691E-09 0.00000000E+00    2
-4.22675236E+03 9.39239621E+00 9.38433173E-01 3.90547287E-02-2.16437148E-05    3
 5.87267077E-09-6.14435479E-13-3.74817891E+03 1.91442985E+01                   4
IXC3H5CHO         000000N   0O   1H   6C   4G       300      5000    1000      1
 7.19597854E+00 2.49956291E-02-1.10451332E-05 1.80920430E-09 0.00000000E+00    2
-1.72891601E+04-1.12990296E+01 6.27183793E-01 4.66780254E-02-3.74430631E-05    3
 1.58330542E-08-2.73952155E-12-1.57203117E+04 2.16034294E+01                   4
IXC3H6CO          000000N   0O   1H   6C   4G       300      5000    1000      1
 7.75337340E+00 2.34189265E-02-9.95663860E-06 1.57607259E-09 0.00000000E+00    2
-1.76870893E+04-1.35326559E+01 2.28039055E+00 4.17016989E-02-3.25089661E-05    3
 1.37243419E-08-2.40573132E-12-1.63939712E+04 1.38187714E+01                   4
IXC4H10           000000N   0O   0H  10C   4G       300      5000    1000      1
 2.15309662E+00 4.02573763E-02-1.79726719E-05 2.96862376E-09 0.00000000E+00    2
-1.88200361E+04 1.15023884E+01-1.01277506E+00 5.04683181E-02-3.00502072E-05    3
 9.15435582E-09-1.15326683E-12-1.80495698E+04 2.74256871E+01                   4
C4H10             000000N   0O   0H  10C   4G       300      5000    1000      1
 2.27490347E+00 3.98933022E-02-1.78151483E-05 2.95168814E-09 0.00000000E+00    2
-1.77040887E+04 1.26923580E+01-5.95684473E-01 4.89605743E-02-2.82670269E-05    3
 8.13598060E-09-9.29098101E-13-1.69934308E+04 2.71845212E+01                   4
IXC3H5CO          000000N   0O   1H   5C   4G       300      5000    1000      1
 8.63232766E+00 1.91159224E-02-8.00161116E-06 1.24510072E-09 0.00000000E+00    2
-1.42477548E+03-1.85563686E+01 1.85097069E+00 4.18855846E-02-3.62553731E-05    3
 1.65690659E-08-3.05850846E-12 1.70381441E+02 1.53014433E+01                   4
IXC4H7OH          000000N   0O   1H   8C   4G       300      5000    1000      1
 4.51639244E+00 3.41233243E-02-1.54939573E-05 2.62031163E-09 0.00000000E+00    2
-2.21719085E+04 5.59170103E+00 1.69099899E+00 4.27168891E-02-2.49281695E-05    3
 7.00961522E-09-7.23262828E-13-2.14512334E+04 1.99500833E+01                   4
IXC4H9O2          000000N   0O   2H   9C   4G       300      5000    1000      1
 5.87706680E+00 3.88267404E-02-1.71467317E-05 2.79162542E-09 0.00000000E+00    2
-1.29408466E+04 1.52864663E-01 1.21434293E+00 5.45388311E-02-3.67001593E-05    3
 1.34131042E-08-2.11741793E-12-1.18482450E+04 2.34153048E+01                   4
TXC4H9O2          000000N   0O   2H   9C   4G       300      5000    1000      1
 7.53191518E+00 3.63475610E-02-1.57340220E-05 2.51233023E-09 0.00000000E+00    2
-1.64426227E+04-1.19048226E+01 1.08742583E+00 5.82780709E-02-4.33292697E-05    3
 1.76892535E-08-3.06769606E-12-1.49456640E+04 2.01871963E+01                   4
PXC4H9O2          000000N   0O   2H   9C   4G       300      5000    1000      1
 5.60083841E+00 3.91490769E-02-1.72943808E-05 2.81627827E-09 0.00000000E+00    2
-1.16875975E+04 3.12724167E+00 1.94363650E+00 5.15513163E-02-3.28284400E-05    3
 1.13064860E-08-1.70118606E-12-1.08358103E+04 2.13503149E+01                   4
C5H9              000000N   0O   0H   9C   5G       300      5000    1000      1
 3.78447384E+00 3.92999515E-02-1.78010500E-05 2.98594285E-09 0.00000000E+00    2
 1.12889042E+04 6.61027315E+00-1.38013950E+00 5.57608487E-02-3.70143928E-05    3
 1.26883901E-08-1.78538835E-12 1.25589824E+04 3.26441304E+01                   4
IXC5H9            000000N   0O   0H   9C   5G       300      5000    1000      1
 3.36575371E+00 4.03442069E-02-1.84836234E-05 3.10688623E-09 0.00000000E+00    2
 9.69702676E+03 8.00001842E+00-3.17594304E-01 5.22454910E-02-3.25968130E-05    3
 1.03628050E-08-1.36066533E-12 1.05922826E+04 2.65205225E+01                   4
AXC5H10           000000N   0O   0H  10C   5G       300      5000    1000      1
 4.22640907E+00 4.07544495E-02-1.80613416E-05 2.97172139E-09 0.00000000E+00    2
-7.48699568E+03 4.76272244E+00-2.76630603E-01 5.53539280E-02-3.54499620E-05    3
 1.19626854E-08-1.69878242E-12-6.39547297E+03 2.73911578E+01                   4
C5H10X1           000000N   0O   0H  10C   5G       300      5000    1000      1
 3.98580522E+00 4.12429986E-02-1.84390497E-05 3.06155241E-09 0.00000000E+00    2
-5.70112071E+03 6.85332264E+00-1.06223481E+00 5.74218294E-02-3.74486890E-05    3
 1.27364989E-08-1.79609789E-12-4.46546666E+03 3.22739790E+01                   4
C6H11             000000N   0O   0H  11C   6G       300      5000    1000      1
 3.65722723E+00 4.96497230E-02-2.27569128E-05 3.83175290E-09 0.00000000E+00    2
 7.02283091E+03 8.94408880E+00-1.78981302E+00 6.71660911E-02-4.34180588E-05    3
 1.43931014E-08-1.96953043E-12 8.35230470E+03 3.63570478E+01                   4
C6H12X1           000000N   0O   0H  12C   6G       300      5000    1000      1
 4.97075871E+00 4.96637321E-02-2.22947517E-05 3.71602180E-09 0.00000000E+00    2
-8.89572273E+03 3.44991991E+00-1.35275205E+00 6.98655426E-02-4.59408022E-05    3
 1.56967343E-08-2.21296175E-12-7.34368617E+03 3.53120691E+01                   4
YXC7H14           000000N   0O   0H  14C   7G       300      5000    1000      1
 5.51949920E+00 5.83988213E-02-2.60086064E-05 4.29182035E-09 0.00000000E+00    2
-1.61420030E+04-7.15568220E-02-8.42232649E-01 7.89798297E-02-5.04574475E-05    3
 1.68934048E-08-2.37201987E-12-1.45971538E+04 3.19096189E+01                   4
NXC7H16           000000N   0O   0H  16C   7G       300      5000    1000      1
 5.14079241E+00 6.53078671E-02-2.94827624E-05 4.93726726E-09 0.00000000E+00    2
-2.72533890E+04 2.98195967E+00-1.26836187E+00 8.54355820E-02-5.25346786E-05    3
 1.62945721E-08-2.02394925E-12-2.56586565E+04 3.53732912E+01                   4
IXC8H18           000000N   0O   0H  18C   8G       300      5000    1000      1
 8.11399812E+00 7.18938145E-02-3.25717545E-05 5.46436799E-09 0.00000000E+00    2
-3.29583815E+04-1.70885610E+01-4.20868893E+00 1.11440581E-01-7.91346582E-05    3
 2.92406242E-08-4.43743191E-12-2.99446875E+04 4.49521701E+01                   4
CH                000000N   0O   0H   1C   1G       300      5000    1000      1
 2.19622300E+00 2.34038100E-03-7.05820100E-07 9.00758200E-11-3.85504000E-15    2
 7.08672300E+04 9.17837300E+00 3.20020200E+00 2.07287600E-03-5.13443100E-06    3
 5.73389000E-09-1.95553300E-12 7.04525900E+04 3.33158800E+00                   4
CH2GSG            000000N   0O   0H   2C   1G       300      5000    1000      1
 3.55288900E+00 2.06678800E-03-1.91411600E-07-1.10467300E-10 2.02135000E-14    2
 4.98497500E+04 1.68657000E+00 3.97126500E+00-1.69908900E-04 1.02536900E-06    3
 2.49255100E-09-1.98126600E-12 4.98936800E+04 5.75320700E-02                   4
CH2OH             000000N   0O   1H   3C   1G       300      5000    1000      1
 6.32752000E+00 3.60827100E-03-3.20154700E-07-1.93875000E-10 3.50970500E-14    2
-4.47450900E+03-8.32936600E+00 2.86262800E+00 1.00152700E-02-5.28543600E-07    3
-5.13854000E-09 2.24604100E-12-3.34967900E+03 1.03979400E+01                   4
HOCH2O            000000N   0O   2H   3C   1G       300      5000    1000      1
 1.72976110E+00 1.61486804E-02-7.75692098E-06 1.37089042E-09 0.00000000E+00    2
-2.07251324E+04 1.91890617E+01 4.11183145E+00 7.53850697E-03 3.77337370E-06    3
-5.38746005E-09 1.45615887E-12-2.12471918E+04 7.46807254E+00                   4
C2H               000000N   0O   0H   1C   2G       300      5000    1000      1
 3.98636700E+00 3.14312300E-03-1.26724300E-06 2.92436300E-10-2.71632000E-14    2
 6.65588400E+04 1.19106300E+00 2.73770400E+00 8.04844600E-03-9.24431000E-06    3
 6.52525900E-09-1.93958000E-12 6.68381300E+04 7.30022000E+00                   4
HCCO              000000N   0O   1H   1C   2G       300      5000    1000      1
 6.75807300E+00 2.00040000E-03-2.02760700E-07-1.04113200E-10 1.96516500E-14    2
 1.90151300E+04-9.07126200E+00 5.04796500E+00 4.45347800E-03 2.26828300E-07    3
-1.48209500E-09 2.25074200E-13 1.96589200E+04 4.81843900E-01                   4
CH2CHO            000000N   0O   1H   3C   2G       300      5000    1000      1
 5.97567000E+00 8.13059100E-03-2.74362400E-06 4.07030400E-10-2.17601700E-14    2
 4.90321800E+02-5.04525100E+00 3.40906200E+00 1.07385700E-02 1.89149200E-06    3
-7.15858300E-09 2.86738500E-12 1.52147700E+03 9.55829000E+00                   4
C2H5O             000000N   0O   1H   5C   2G       300      5000    1000      1
 2.46262349E+00 2.09503959E-02-9.39291750E-06 1.56440627E-09 0.00000000E+00    2
-3.83932658E+03 1.28738847E+01 4.94420708E-01 2.71774434E-02-1.65909010E-05    3
 5.15204200E-09-6.48496915E-13-3.35252925E+03 2.28079378E+01                   4
C2H3O1X2          000000N   0O   1H   3C   2G       300      5000    1000      1
 3.41055375E+00 1.35293434E-02-6.24936923E-06 1.09125656E-09 0.00000000E+00    2
 1.39901041E+04 6.79962828E+00-1.62965122E+00 2.93455486E-02-2.43737550E-05    3
 1.00522325E-08-1.61259036E-12 1.52459425E+04 3.22782741E+01                   4
CH3CO             000000N   0O   1H   3C   2G       300      5000    1000      1
 5.61227900E+00 8.44988600E-03-2.85414700E-06 4.23837600E-10-2.26840400E-14    2
-5.18786300E+03-3.27494900E+00 3.12527800E+00 9.77822000E-03 4.52144800E-06    3
-9.00946200E-09 3.19371800E-12-4.10850800E+03 1.12288500E+01                   4
C3H2              000000N   0O   0H   2C   3G       300      5000    1000      1
 7.67098100E+00 2.74874900E-03-4.37094300E-07-6.45559900E-11 1.66388700E-14    2
 6.25972200E+04-1.23689000E+01 3.16671400E+00 2.48257200E-02-4.59163700E-05    3
 4.26801900E-08-1.48215200E-11 6.35042100E+04 8.86944600E+00                   4
C3H5O             000000N   0O   1H   5C   3G       300      5000    1000      1
 3.39074577E+00 2.41301620E-02-1.13650894E-05 1.97900938E-09 0.00000000E+00    2
 9.00757452E+03 1.03459501E+01 1.19822582E+00 3.05579837E-02-1.80630276E-05    3
 4.86150033E-09-4.19854562E-13 9.58217784E+03 2.15566221E+01                   4
C3H5XT            000000N   0O   0H   5C   3G       300      5000    1000      1
 1.94476358E+00 2.14172765E-02-9.55055670E-06 1.58351174E-09 0.00000000E+00    2
 2.95295307E+04 1.59800921E+01 2.17916644E+00 2.03826623E-02-7.91413834E-06    3
 4.76906187E-10 2.70398536E-13 2.94895338E+04 1.48785684E+01                   4
IXC3H7            000000N   0O   0H   7C   3G       300      5000    1000      1
 8.06336900E+00 1.57448800E-02-5.18239200E-06 7.47724500E-10-3.85442200E-14    2
 5.31387100E+03-2.19264700E+01 1.71330000E+00 2.54261600E-02 1.58080800E-06    3
-1.82128600E-08 8.82771000E-12 7.53580900E+03 1.29790100E+01                   4
C2H3CO            000000N   0O   1H   3C   3G       300      5000    1000      1
 7.49438492E+00 1.07546430E-02-3.99256412E-06 5.48455956E-10 0.00000000E+00    2
 2.82679210E+03-1.33012118E+01 1.36242013E+00 3.15273972E-02-3.00218935E-05    3
 1.48167112E-08-2.87971530E-12 4.25770215E+03 1.72626546E+01                   4
CH2CCH2OH         000000N   0O   1H   5C   3G       300      5000    1000      1
 3.58191118E+00 2.26426214E-02-1.04500902E-05 1.79729408E-09 0.00000000E+00    2
 1.15828067E+04 1.15174392E+01 2.88422544E+00 2.42428071E-02-1.14152268E-05    3
 1.71775334E-09 1.42177454E-13 1.17935615E+04 1.52102335E+01                   4
C4H7              000000N   0O   0H   7C   4G       300      5000    1000      1
 3.81780717E+00 2.91017034E-02-1.29034435E-05 2.12640447E-09 0.00000000E+00    2
 1.39849665E+04 5.79255273E+00-3.50508352E-01 4.26511243E-02-2.90979373E-05    3
 1.05403914E-08-1.60059854E-12 1.49933591E+04 2.67295696E+01                   4
C4H7O             000000N   0O   1H   7C   4G       300      5000    1000      1
 6.21920403E+00 3.10373110E-02-1.47414983E-05 2.57805897E-09 0.00000000E+00    2
 2.91790666E+03-4.77187791E+00-1.60619192E+00 5.58562682E-02-4.35595767E-05    3
 1.70589279E-08-2.65635180E-12 4.85090326E+03 3.47112559E+01                   4
IXC4H7O           000000N   0O   1H   7C   4G       300      5000    1000      1
 4.69209202E+00 3.18284586E-02-1.46589391E-05 2.50217365E-09 0.00000000E+00    2
 4.11802116E+03 4.48457419E+00 1.74700687E+00 4.07783436E-02-2.44750243E-05    3
 7.06502958E-09-7.51570589E-13 4.86979233E+03 1.94535999E+01                   4
IXC4H9            000000N   0O   0H   9C   4G       300      5000    1000      1
 3.77508718E+00 3.43242480E-02-1.50000815E-05 2.43400869E-09 0.00000000E+00    2
 5.51336849E+03 6.07871199E+00-1.00837470E+00 5.01087003E-02-3.41941210E-05    3
 1.26025783E-08-1.97552053E-12 6.65557909E+03 3.00386204E+01                   4
PXC4H9            000000N   0O   0H   9C   4G       300      5000    1000      1
 3.81812330E+00 3.40790489E-02-1.49135433E-05 2.43205247E-09 0.00000000E+00    2
 6.65901304E+03 7.30417607E+00-4.37779725E-01 4.78972364E-02-3.14023159E-05    3
 1.09786472E-08-1.62010664E-12 7.68945248E+03 2.86852732E+01                   4
TXC4H9            000000N   0O   0H   9C   4G       300      5000    1000      1
-1.58631603E+00 4.22347506E-02-1.93281324E-05 3.25653506E-09 0.00000000E+00    2
 4.56608047E+03 3.55114583E+01-2.73729203E+00 4.55390345E-02-2.26390939E-05    3
 4.56951052E-09-1.55321795E-13 4.87138887E+03 4.14144877E+01                   4
TXC4H9O           000000N   0O   1H   9C   4G       300      5000    1000      1
 6.29676884E+00 3.48948567E-02-1.53075119E-05 2.49415763E-09 0.00000000E+00    2
-1.53396915E+04-7.64896367E+00-7.70464068E-01 5.81926660E-02-4.36197921E-05    3
 1.74942219E-08-2.91836040E-12-1.36502805E+04 2.77576513E+01                   4
IXC4H6OH          000000N   0O   1H   7C   4G       300      5000    1000      1
 6.23253527E+00 2.92997409E-02-1.31836016E-05 2.19174644E-09 0.00000000E+00    2
-4.44108779E+03-4.02814898E+00 8.63371227E-01 4.68711282E-02-3.43580339E-05    3
 1.33031052E-08-2.13914975E-12-3.14948305E+03 2.29075523E+01                   4
C4H8OOH1X3        000000N   0O   2H   9C   4G       300      5000    1000      1
 5.39803200E+00 4.14364884E-02-1.96843406E-05 3.42149659E-09 0.00000000E+00    2
-5.22953508E+03 6.43453600E+00 1.94106276E+00 5.18789351E-02-3.10411683E-05    3
 8.63568881E-09-8.42841994E-13-4.34315962E+03 2.40230471E+01                   4
IC4H8O2HXT        000000N   0O   2H   9C   4G       300      5000    1000      1
 6.79169931E+00 3.56792226E-02-1.55575664E-05 2.54536254E-09 0.00000000E+00    2
-6.73688506E+03 9.43224996E-02 3.77633001E+00 4.50889269E-02-2.62423875E-05    3
 7.74736900E-09-9.11520393E-13-5.98295842E+03 1.53503399E+01                   4
TC4H8O2HXI        000000N   0O   2H   9C   4G       300      5000    1000      1
 1.04628955E+01 3.14141746E-02-1.35326464E-05 2.18982892E-09 0.00000000E+00    2
-8.68277546E+03-2.29159786E+01 1.57469723E+00 6.04648659E-02-4.84991814E-05    3
 2.05236181E-08-3.52974722E-12-6.54190901E+03 2.16852700E+01                   4
NEOXC5H11         000000N   0O   0H  11C   5G       300      5000    1000      1